Circuit: *** Lab No 6 Part 1

Ignoring BSIM parameter XL
Ignoring BSIM parameter XW
Ignoring BSIM parameter XL
Ignoring BSIM parameter XW
Warning: Pd = 0 is less than W.
Warning: Ps = 0 is less than W.
Warning: Pd = 0 is less than W.
Warning: Ps = 0 is less than W.
Direct Newton iteration for .op point succeeded.

tphl=9.1934e-011 FROM 1e-006 TO 1.00009e-006
tplh=1.09839e-010 FROM 5e-013 TO 1.10339e-010


Date: Thu Apr 11 10:07:25 2019
Total elapsed time: 0.160 seconds.

tnom = 27
temp = 27
method = modified trap
totiter = 3899
traniter = 3888
tranpoints = 1862
accept = 1708
rejected = 154
matrix size = 5
fillins = 0
solver = Normal
Matrix Compiler1: 132 bytes object code size  0.1/0.1/[0.0]
Matrix Compiler2: 335 bytes object code size  0.0/0.1/[0.0]

