Circuit: ***Lab No 4 Part 1

Direct Newton iteration for .op point succeeded.

tphl=3.42177e-007 FROM 4.0005e-006 TO 4.34268e-006
tplh=3.9013e-007 FROM 6.0015e-006 TO 6.39163e-006


Date: Tue Mar 19 09:29:35 2019
Total elapsed time: 0.160 seconds.

tnom = 27
temp = 27
method = modified trap
totiter = 2700
traniter = 2694
tranpoints = 1334
accept = 1247
rejected = 87
matrix size = 14
fillins = 2
solver = Normal
Matrix Compiler1: 1.27 KB object code size  0.9/0.5/[0.4]
Matrix Compiler2: 1.24 KB object code size  0.4/0.5/[0.3]

