Circuit: ***Lab No 4 Resistor Inverter

Direct Newton iteration for .op point succeeded.

tphl=4.0513e-009 FROM 4.0005e-006 TO 4.00455e-006
tplh=1.94854e-007 FROM 6.0015e-006 TO 6.19635e-006


Date: Tue Mar 19 09:07:19 2019
Total elapsed time: 0.134 seconds.

tnom = 27
temp = 27
method = modified trap
totiter = 2881
traniter = 2873
tranpoints = 1388
accept = 1294
rejected = 94
matrix size = 9
fillins = 0
solver = Normal
Matrix Compiler1: 456 bytes object code size  0.2/0.1/[0.1]
Matrix Compiler2: off  [0.0]/0.1/0.1

