Circuit: *** Lab No 4 Part 2

Direct Newton iteration for .op point succeeded.

tphl=4.24399e-008 FROM 4.0005e-006 TO 4.04294e-006
tplh=4.20804e-008 FROM 6.0015e-006 TO 6.04358e-006


Date: Tue Mar 19 09:32:07 2019
Total elapsed time: 0.102 seconds.

tnom = 27
temp = 27
method = modified trap
totiter = 2823
traniter = 2817
tranpoints = 1362
accept = 1277
rejected = 85
matrix size = 13
fillins = 0
solver = Normal
Matrix Compiler1:      63 opcodes  0.4/[0.1]/0.2
Matrix Compiler2: 1.13 KB object code size  0.1/0.2/[0.1]

