Circuit: ***Lab No 4 RC delay Modelling

.OP point found by inspection.

tphl=8.29854e-008 FROM 6.00167e-006 TO 6.08465e-006
tplh=3.15167e-008 FROM 4.00033e-006 TO 4.03185e-006


Date: Thu Mar 14 11:02:05 2019
Total elapsed time: 0.100 seconds.

tnom = 27
temp = 27
method = modified trap
totiter = 2554
traniter = 2554
tranpoints = 1278
accept = 1218
rejected = 60
matrix size = 3
fillins = 0
solver = Normal
Matrix Compiler1: off  [0.0]/0.0/0.0
Matrix Compiler2: 175 bytes object code size  0.1/0.1/[0.0]

