Circuit: **** RC Delay

Direct Newton iteration for .op point succeeded.

tplh=5.65253e-011 FROM 1.0015e-009 TO 1.05803e-009


Date: Tue Apr 09 10:36:28 2019
Total elapsed time: 0.110 seconds.

tnom = 27
temp = 27
method = modified trap
totiter = 2665
traniter = 2662
tranpoints = 1332
accept = 1265
rejected = 67
matrix size = 10
fillins = 0
solver = Normal
Matrix Compiler1: 400 bytes object code size  0.2/0.1/[0.1]
Matrix Compiler2: off  [0.0]/0.1/0.1

