Questionable use of curly braces in ".measure energy param = {1.8*curr}"
    Error: undefined symbol in: "1.8*[curr]"
Circuit: **** Lab no 5 Sample Inverter

Ignoring BSIM parameter XL
Ignoring BSIM parameter XW
Ignoring BSIM parameter XL
Ignoring BSIM parameter XW
Warning: Pd = 0 is less than W.
Warning: Ps = 0 is less than W.
Warning: Pd = 0 is less than W.
Warning: Ps = 0 is less than W.
Direct Newton iteration for .op point succeeded.


Measurement "s_pwr" FAIL'ed

Measurement "curr" FAIL'ed

Measurement "energy" FAIL'ed
charge_volt: INTEG(v(out))=1.79344e-009 FROM 1e-009 TO 3e-009
tphl=3.1707e-011 FROM 5e-013 TO 3.2207e-011
tplh=3.24248e-011 FROM 3.0015e-009 TO 3.03392e-009


Date: Sun Apr 07 13:27:49 2019
Total elapsed time: 0.204 seconds.

tnom = 27
temp = 27
method = modified trap
totiter = 2344
traniter = 2335
tranpoints = 1147
accept = 1125
rejected = 22
matrix size = 5
fillins = 0
solver = Normal
Matrix Compiler1: 132 bytes object code size  0.0/0.0/[0.0]
Matrix Compiler2: 335 bytes object code size  0.0/0.1/[0.0]

