Questionable use of curly braces in ".measure energy param = {1.8*curr}"
    Error: undefined symbol in: "1.8*[curr]"
Circuit: **** Lab no 5 circuit

Ignoring BSIM parameter XL
Ignoring BSIM parameter XW
Ignoring BSIM parameter XL
Ignoring BSIM parameter XW
Warning: Pd = 0 is less than W.
Warning: Ps = 0 is less than W.
Warning: Pd = 0 is less than W.
Warning: Ps = 0 is less than W.
Warning: Pd = 0 is less than W.
Warning: Ps = 0 is less than W.
Warning: Pd = 0 is less than W.
Warning: Ps = 0 is less than W.
Direct Newton iteration for .op point succeeded.


Measurement "s_pwr" FAIL'ed

Measurement "curr" FAIL'ed

Measurement "energy" FAIL'ed
charge_volt: INTEG(v(out))=2.82784e-008 FROM 0 TO 3.2e-008
tphl=4.06522e-011 FROM 5e-013 TO 4.11522e-011
tplh=5.21674e-011 FROM 3.0015e-009 TO 3.05367e-009


Date: Sun Apr 07 14:16:37 2019
Total elapsed time: 1.315 seconds.

tnom = 27
temp = 27
method = modified trap
totiter = 8638
traniter = 8619
tranpoints = 3016
accept = 2473
rejected = 543
matrix size = 7
fillins = 0
solver = Normal
Matrix Compiler1: 268 bytes object code size  0.1/0.1/[0.0]
Matrix Compiler2: 589 bytes object code size  0.1/0.1/[0.1]

