Circuit: **** Lab no 5 circuit

Ignoring BSIM parameter XL
Ignoring BSIM parameter XW
Ignoring BSIM parameter XL
Ignoring BSIM parameter XW
Warning: Pd = 0 is less than W.
Warning: Ps = 0 is less than W.
Warning: Pd = 0 is less than W.
Warning: Ps = 0 is less than W.
Warning: Pd = 0 is less than W.
Warning: Ps = 0 is less than W.
Warning: Pd = 0 is less than W.
Warning: Ps = 0 is less than W.
Direct Newton iteration for .op point succeeded.


Measurement "s_pwr" FAIL'ed
charge_volt: INTEG(v(out))=3.03571e-008 FROM 1.4e-008 TO 4.2e-008


Date: Sun Apr 07 14:33:07 2019
Total elapsed time: 0.336 seconds.

tnom = 27
temp = 27
method = modified trap
totiter = 12605
traniter = 12586
tranpoints = 4951
accept = 3990
rejected = 961
matrix size = 11
fillins = 0
solver = Normal
Matrix Compiler1: 468 bytes object code size  0.1/0.1/[0.1]
Matrix Compiler2: 1021 bytes object code size  0.1/0.1/[0.1]

