Circuit: **** Lab no 5 Sample Inverter

Ignoring BSIM parameter XL
Ignoring BSIM parameter XW
Ignoring BSIM parameter XL
Ignoring BSIM parameter XW
Warning: Pd = 0 is less than W.
Warning: Ps = 0 is less than W.
Warning: Pd = 0 is less than W.
Warning: Ps = 0 is less than W.
Warning: Pd = 0 is less than W.
Warning: Ps = 0 is less than W.
Warning: Pd = 0 is less than W.
Warning: Ps = 0 is less than W.
Direct Newton iteration for .op point succeeded.


Measurement "s_pwr" FAIL'ed


Date: Sun Apr 07 14:28:14 2019
Total elapsed time: 0.379 seconds.

tnom = 27
temp = 27
method = modified trap
totiter = 13248
traniter = 13220
tranpoints = 5120
accept = 4102
rejected = 1018
matrix size = 14
fillins = 0
solver = Normal
Matrix Compiler1: 662 bytes object code size  0.2/0.1/[0.0]
Matrix Compiler2: 1.34 KB object code size  0.1/0.2/[0.1]

