Circuit: *** Lab No 4 Part 3

Direct Newton iteration for .op point succeeded.

tphl=7.63205e-009 FROM 4.0005e-006 TO 4.00813e-006
tplh=8.60607e-009 FROM 6.0015e-006 TO 6.01011e-006


Date: Tue Mar 19 09:51:17 2019
Total elapsed time: 0.130 seconds.

tnom = 27
temp = 27
method = modified trap
totiter = 3762
traniter = 3749
tranpoints = 1784
accept = 1584
rejected = 200
matrix size = 22
fillins = 2
solver = Normal
Matrix Compiler1: 2.32 KB object code size  0.7/0.3/[0.2]
Matrix Compiler2: 2.12 KB object code size  0.2/0.3/[0.2]

